scratch/importTests/ABEC-COLUMBIA.glm
clock {
timezone PST+8PDT;
stoptime '2000-01-02 00:00:00';
starttime '2000-01-01 00:00:00';
};

#include "schedules.glm";
#set minimum_timestep=60;
#set profiler=1;
#set relax_naming_rules=1;
module generators;
module tape;
module climate;
module residential {
implicit_enduses NONE;
};

module powerflow {
solver_method NR;
NR_iteration_limit 50;
};

object climate {
name Climate;
interpolate QUADRATIC;
tmyfile climate.tmy2;
};

object node {
phases ABCN;
name COLOMA SUB;
bustype SWING;
nominal_voltage 7200.0;
};

object regulator {
phases ACBN;
from COLOMA SUB;
to nodeCOLOMA4Coloma Bus Regs;
configuration REG14regulator_configuration55901;
name Coloma Bus Regs;
};

object fuse {
phases ACB;
from nodeCOLOMA4Coloma Bus Regs;
name COLOMA4;
current_limit 9999.0 A;
to node948739COLOMA4;
};

object underground_line {
phases ACB;
from node948739COLOMA4;
name 948739;
to node824694948739;
length 70;
configuration 825117line_configuration98301;
};

object underground_line {
phases ACB;
from node824694948739;
name 824694;
to nodeRCMA4-R0001x1824694;
length 70;
configuration 825117line_configuration98301;
};

object fuse {
phases ACB;
from nodeRCMA4-R0001x1824694;
name RCMA4-R0001x1;
current_limit 9999.0 A;
to node984636RCMA4-R0001x1;
};

object underground_line {
phases ACB;
from node984636RCMA4-R0001x1;
name 984636;
to node984637984636;
length 133;
configuration 825117line_configuration98301;
};

object underground_line {
phases ACB;
from node984637984636;
name 984637;
to node984634984637;
length 10;
configuration 825117line_configuration98301;
};

object underground_line {
phases ACB;
from node984634984637;
name 984634;
to node12049x1-B984634;
length 10;
configuration 825117line_configuration98301;
};

object underground_line {
phases ACB;
from node984634984637;
name 984638;
to node984639984638;
length 10;
configuration 825117line_configuration98301;
};

object underground_line {
phases ACB;
from node984639984638;
name 984639;
to node824697984639;
length 781;
configuration 825117line_configuration98301;
};

object underground_line {
phases B;
from node824697984639;
name 824697;
to nodeT21526824697;
length 26;
configuration 825117line_configuration98301;
};

object transformer {
phases BS;
from nodeT21526824697;
name T21526;
to nodeS1807-24-030T21526;
configuration 1808-33-003transformer_configuration32701;
};

object triplex_node {
phases BS;
power_12 100;
name S1807-24-030;
parent nodeS1807-24-030T21526;
nominal_voltage 120;
};

object underground_line {
phases ACB;
from node824697984639;
name 824700;
to node824701824700;
length 257;
configuration 825117line_configuration98301;
};

object overhead_line {
phases ACBN;
from node824701824700;
name 824701;
to node824702824701;
length 129;
configuration 824894line_configuration55501;
};

object overhead_line {
phases ACBN;
from node824702824701;
name 824702;
to node824704824702;
length 30;
configuration 824894line_configuration55501;
};

object overhead_line {
phases ACBN;
from node824704824702;
name 824704;
to node824705824704;
length 752;
configuration 824894line_configuration55501;
};

object overhead_line {
phases ACBN;
from node824705824704;
name 824705;
to node1808-19-005824705;
length 140;
configuration 824830line_configuration16201;
};

object transformer {
phases AS;
from node1808-19-005824705;
name 1808-19-005;
to nodeS1808-19-0111808-19-005;
configuration T12395transformer_configuration65401;
};

object triplex_node {
phases AS;
power_12 619.876;
name S1808-19-011;
parent nodeS1808-19-0111808-19-005;
nominal_voltage 120;
};

object overhead_line {
phases ACBN;
from node824705824704;
name 824707;
to node979614824707;
length 1574;
configuration 824894line_configuration55501;
};

object underground_line {
phases ACB;
from node979614824707;
name 979614;
to node979615979614;
length 20;
configuration 825117line_configuration98301;
};

object underground_line {
phases ACB;
from node979615979614;
name 979615;
to nodeT28934979615;
length 960;
configuration 825117line_configuration98301;
};

object transformer {
phases AS;
from nodeT28934979615;
to nodeS1808-19-005T28934;
configuration T12395transformer_configuration65401;
name T28934;
};

object triplex_node {
phases AS;
power_12 11595.4;
name S1808-19-005;
parent nodeS1808-19-005T28934;
nominal_voltage 120;
};

object underground_line {
phases ACB;
from node979615979614;
name 979617;
to nodeT28933979617;
length 140;
configuration 825117line_configuration98301;
};

object transformer {
phases AS;
from nodeT28933979617;
name T28933;
to nodeS1808-19-008T28933;
configuration T12395transformer_configuration65401;
};

object triplex_node {
phases AS;
power_12 8607.95;
name S1808-19-008;
parent nodeS1808-19-008T28933;
nominal_voltage 120;
};

object triplex_node {
phases AS;
power_12 282.697;
name S1808-19-009;
parent nodeS1808-19-008T28933;
nominal_voltage 120;
};

object overhead_line {
phases ACB;
from node979614824707;
name 979839;
to node824712979839;
length 50;
configuration 824894line_configuration55501;
};

object underground_line {
phases ACB;
from node824712979839;
name 824712;
to node824713824712;
length 1036;
configuration 825117line_configuration98301;
};

object underground_line {
phases B;
from node824713824712;
name 824713;
to node1808-19-008824713;
length 392;
configuration 825117line_configuration98301;
};

object transformer {
phases BS;
from node1808-19-008824713;
name 1808-19-008;
to nodeS1808-19-0011808-19-008;
configuration 1808-33-003transformer_configuration32701;
};

object triplex_node {
phases BS;
power_12 100;
name S1808-19-001;
parent nodeS1808-19-0011808-19-008;
nominal_voltage 120;
};

object underground_line {
phases C;
from node824713824712;
name 824715;
to node824716824715;
length 830;
configuration 825117line_configuration98301;
};

object underground_line {
phases C;
from node824716824715;
name 824716;
to nodeR7229x1824716;
length 20;
configuration 825117line_configuration98301;
};

object fuse {
phases CN;
from nodeR7229x1824716;
name R7229x1;
current_limit 9999.0 A;
to node920601R7229x1;
};

object overhead_line {
phases CN;
from node920601R7229x1;
name 920601;
to node824717920601;
length 778;
configuration 824825line_configuration15001;
};

object overhead_line {
phases CN;
from node824717920601;
name 824717;
to node824718824717;
length 1237;
configuration 824825line_configuration15001;
};

object overhead_line {
phases CN;
from node824718824717;
name 824718;
to node824720824718;
length 433;
configuration 824825line_configuration15001;
};

object overhead_line {
phases CN;
from node824720824718;
name 824720;
to node824721824720;
length 1357;
configuration 824825line_configuration15001;
};

object overhead_line {
phases CN;
from node824721824720;
name 824721;
to node824722824721;
length 1076;
configuration 824825line_configuration15001;
};

object overhead_line {
phases CN;
from node824722824721;
name 824722;
to node824723824722;
length 1073;
configuration 824825line_configuration15001;
};

object overhead_line {
phases CN;
from node824723824722;
name 824723;
to node906386824723;
length 714;
configuration 824825line_configuration15001;
};

object overhead_line {
phases CN;
from node906386824723;
name 906386;
to node824726906386;
length 335;
configuration 824825line_configuration15001;
};

object overhead_line {
phases CN;
from node824726906386;
name 824726;
to node824727824726;
length 376;
configuration 824825line_configuration15001;
};

object overhead_line {
phases CN;
from node824727824726;
name 824727;
to node824728824727;
length 555;
configuration 824825line_configuration15001;
};

object overhead_line {
phases CN;
from node824728824727;
name 824728;
to node824729824728;
length 588;
configuration 824825line_configuration15001;
};

object overhead_line {
phases CN;
from node824729824728;
name 824729;
to node824730824729;
length 142;
configuration 824825line_configuration15001;
};

object overhead_line {
phases CN;
from node824730824729;
name 824730;
to node824731824730;
length 311;
configuration 824825line_configuration15001;
};

object overhead_line {
phases CN;
from node824731824730;
name 824731;
to node824732824731;
length 281;
configuration 824825line_configuration15001;
};

object overhead_line {
phases CN;
from node824732824731;
name 824732;
to node824733824732;
length 282;
configuration 824825line_configuration15001;
};

object overhead_line {
phases CN;
from node824733824732;
name 824733;
to node824734824733;
length 592;
configuration 824825line_configuration15001;
};

object overhead_line {
phases CN;
from node824734824733;
name 824734;
to node824738824734;
length 242;
configuration 824825line_configuration15001;
};

object underground_line {
phases CN;
from node824738824734;
name 824738;
to nodeF7974x1824738;
length 50;
configuration 825117line_configuration98301;
};

object fuse {
phases C;
from nodeF7974x1824738;
name F7974x1;
current_limit 9999.0 A;
to node824739F7974x1;
};

object underground_line {
phases C;
from node824739F7974x1;
name 824739;
to node824740824739;
length 1217;
configuration 825117line_configuration98301;
};

object underground_line {
phases C;
from node824740824739;
name 824740;
to node824741824740;
length 816;
configuration 825117line_configuration98301;
};

object underground_line {
phases C;
from node824741824740;
name 824741;
to node824742824741;
length 380;
configuration 825117line_configuration98301;
};

object underground_line {
phases C;
from node824742824741;
name 824742;
to nodeFCMA4-F008x1824742;
length 178;
configuration 825117line_configuration98301;
};

object fuse {
phases C;
from nodeFCMA4-F008x1824742;
name FCMA4-F008x1;
current_limit 9999.0 A;
to node824743FCMA4-F008x1;
};

object underground_line {
phases C;
from node824743FCMA4-F008x1;
name 824743;
to node1808-0151824743;
length 699;
configuration 825117line_configuration98301;
};

object transformer {
phases CS;
from node1808-0151824743;
name 1808-0151;
to nodeS1808-21-0031808-0151;
configuration 1808-33-003transformer_configuration32701;
};

object triplex_node {
phases CS;
power_12 1580.38;
name S1808-21-003;
parent nodeS1808-21-0031808-0151;
nominal_voltage 120;
};

object underground_line {
phases C;
from node824742824741;
name 824745;
to node1808-0164824745;
length 305;
configuration 825117line_configuration98301;
};

object transformer {
phases CS;
from node1808-0164824745;
name 1808-0164;
to nodeS1808-21-0011808-0164;
configuration 1808-33-003transformer_configuration32701;
};

object triplex_node {
phases CS;
power_12 1586.21;
name S1808-21-001;
parent nodeS1808-21-0011808-0164;
nominal_voltage 120;
};

object transformer {
phases CS;
from node824738824734;
name 1808-29-006;
to nodeS1808-29-0011808-29-006;
configuration 1808-33-003transformer_configuration32701;
};

object triplex_node {
phases CS;
power_12 100;
name S1808-29-001;
parent nodeS1808-29-0011808-29-006;
nominal_voltage 120;
};

object triplex_node {
phases CS;
power_12 579.835;
name S1808-29-004;
parent nodeS1808-29-0011808-29-006;
nominal_voltage 120;
};

object triplex_node {
phases CS;
power_12 989.718;
name S1808-29-088;
parent nodeS1808-29-0011808-29-006;
nominal_voltage 120;
};

object underground_line {
phases CN;
from node824732824731;
name 905282;
to nodeF5088x1905282;
length 22;
configuration 825117line_configuration98301;
};

object fuse {
phases C;
from nodeF5088x1905282;
name F5088x1;
current_limit 9999.0 A;
to node905284F5088x1;
};

object underground_line {
phases C;
from node905284F5088x1;
name 905284;
to nodeT5087905284;
length 432;
configuration 825117line_configuration98301;
};

object transformer {
phases CS;
from nodeT5087905284;
name T5087;
to nodeS1808-29-098T5087;
configuration 1808-33-003transformer_configuration32701;
};

object triplex_node {
phases CS;
power_12 736.457;
name S1808-29-098;
parent nodeS1808-29-098T5087;
nominal_voltage 120;
};

object overhead_line {
phases CN;
from node824731824730;
name 824747;
to node824748824747;
length 409;
configuration 824825line_configuration15001;
};

object overhead_line {
phases CN;
from node824748824747;
name 824748;
to node824750824748;
length 112;
configuration 824825line_configuration15001;
};

object overhead_line {
phases CN;
from node824750824748;
name 824750;
to node824751824750;
length 100;
configuration 824825line_configuration15001;
};

object overhead_line {
phases CN;
from node824751824750;
name 824751;
to node824752824751;
length 175;
configuration 824825line_configuration15001;
};

object overhead_line {
phases CN;
from node824752824751;
name 824752;
to node824755824752;
length 300;
configuration 824825line_configuration15001;
};

object overhead_line {
phases CN;
from node824755824752;
name 824755;
to node824759824755;
length 309;
configuration 824825line_configuration15001;
};

object overhead_line {
phases CN;
from node824759824755;
name 824759;
to node900841824759;
length 322;
configuration 949086line_configuration8801;
};

object overhead_line {
phases CN;
from node900841824759;
name 900841;
to node824760900841;
length 190;
configuration 949086line_configuration8801;
};

object overhead_line {
phases CN;
from node824760900841;
name 824760;
to node900842824760;
length 315;
configuration 949086line_configuration8801;
};

object overhead_line {
phases CN;
from node900842824760;
name 900842;
to node949086900842;
length 335;
configuration 949086line_configuration8801;
};

object overhead_line {
phases CN;
from node949086900842;
name 949086;
to node824761949086;
length 315;
configuration 949086line_configuration8801;
};

object line_configuration {
name 949086line_configuration8801;
spacing 825693line_configuration32501line_spacing32502;
conductor_N 949086line_configuration8801overhead_line_conductor8806;
conductor_B 825694line_configuration32601overhead_line_conductor32604;
conductor_A 825694line_configuration32601overhead_line_conductor32604;
conductor_C 949086line_configuration8801overhead_line_conductor8806;
};

object overhead_line_conductor {
resistance 1.65;
name 949086line_configuration8801overhead_line_conductor8806;
geometric_mean_radius 0.00504;
};

object overhead_line {
phases CN;
from node824761949086;
name 824761;
to node914176824761;
length 325;
configuration 914176line_configuration9001;
};

object overhead_line {
phases CN;
from node914176824761;
name 914176;
to node1808-29-023914176;
length 300;
configuration 914176line_configuration9001;
};

object line_configuration {
name 914176line_configuration9001;
spacing 825693line_configuration32501line_spacing32502;
conductor_N 824894line_configuration55501overhead_line_conductor55506;
conductor_A 825694line_configuration32601overhead_line_conductor32604;
conductor_C 824894line_configuration55501overhead_line_conductor55505;
conductor_B 825694line_configuration32601overhead_line_conductor32604;
};

object underground_line {
phases CN;
from node824761949086;
name 949050;
to node12900x1-Bx1949050;
length 659;
configuration 825117line_configuration98301;
};

object underground_line {
phases CN;
from node824760900841;
name 824798;
to nodeFCMA4-F074x1824798;
length 66;
configuration 825117line_configuration98301;
};

object fuse {
phases C;
from nodeFCMA4-F074x1824798;
name FCMA4-F074x1;
current_limit 9999.0 A;
to node824799FCMA4-F074x1;
};

object underground_line {
phases C;
from node824799FCMA4-F074x1;
name 824799;
to node824800824799;
length 58;
configuration 825117line_configuration98301;
};

object underground_line {
phases CN;
from node824800824799;
name 824800;
to node824802824800;
length 587;
configuration 825117line_configuration98301;
};

object underground_line {
phases CN;
from node824802824800;
name 824802;
to node1808-0088824802;
length 194;
configuration 825117line_configuration98301;
};

object transformer {
phases CS;
from node1808-0088824802;
name 1808-0088;
to nodeS1808-29-0751808-0088;
configuration 1808-33-003transformer_configuration32701;
};

object triplex_node {
phases CS;
power_12 378.225;
name S1808-29-075;
parent nodeS1808-29-0751808-0088;
nominal_voltage 120;
};

object transformer {
phases CS;
from node824802824800;
name 1808-0085;
to nodeS1808-29-0731808-0085;
configuration 1808-33-003transformer_configuration32701;
};

object triplex_node {
phases CS;
power_12 685.638;
name S1808-29-073;
parent nodeS1808-29-0731808-0085;
nominal_voltage 120;
};

object transformer {
phases CS;
from node824800824799;
name 1808-0125;
to nodeS1808-29-0811808-0125;
configuration 1808-33-003transformer_configuration32701;
};

object triplex_node {
phases CS;
power_12 1013.88;
name S1808-29-081;
parent nodeS1808-29-0811808-0125;
nominal_voltage 120;
};

object overhead_line {
phases CN;
from node824759824755;
name 824805;
to node1808-29-032824805;
length 248;
configuration 824825line_configuration15001;
};

object transformer {
phases CS;
from node1808-29-032824805;
name 1808-29-032;
to nodeS1808-29-0071808-29-032;
configuration 1808-33-003transformer_configuration32701;
};

object triplex_node {
phases CS;
power_12 1132.18;
name S1808-29-007;
parent nodeS1808-29-0071808-29-032;
nominal_voltage 120;
};

object underground_line {
phases CN;
from node824759824755;
name 824809;
to nodeFCMA4-F056x1824809;
length 49;
configuration 825117line_configuration98301;
};

object fuse {
phases C;
from nodeFCMA4-F056x1824809;
name FCMA4-F056x1;
current_limit 9999.0 A;
to node824810FCMA4-F056x1;
};

object underground_line {
phases C;
from node824810FCMA4-F056x1;
name 824810;
to node1808-0144824810;
length 360;
configuration 825117line_configuration98301;
};

object transformer {
phases CS;
from node1808-0144824810;
name 1808-0144;
to nodeS1808-29-0891808-0144;
configuration 1808-33-003transformer_configuration32701;
};

object triplex_node {
phases CS;
power_12 1671.19;
name S1808-29-089;
parent nodeS1808-29-0891808-0144;
nominal_voltage 120;
};

object transformer {
phases CS;
from node824750824748;
name 1808-29-012;
to nodeS1808-29-0031808-29-012;
configuration 1808-33-003transformer_configuration32701;
};

object triplex_node {
phases CS;
power_12 479.03;
name S1808-29-003;
parent nodeS1808-29-0031808-29-012;
nominal_voltage 120;
};

object transformer {
phases CS;
from node824729824728;
name 1808-29-002;
to nodeS1808-29-0061808-29-002;
configuration 1808-33-003transformer_configuration32701;
};

object triplex_node {
phases CS;
power_12 636.485;
name S1808-29-006;
parent nodeS1808-29-0061808-29-002;
nominal_voltage 120;
};

object underground_line {
phases CN;
from node824727824726;
name 824814;
to nodeFCMA4-F107x1824814;
length 78;
configuration 825117line_configuration98301;
};

object fuse {
phases C;
from nodeFCMA4-F107x1824814;
name FCMA4-F107x1;
current_limit 9999.0 A;
to node824815FCMA4-F107x1;
};

object underground_line {
phases C;
from node824815FCMA4-F107x1;
name 824815;
to node824816824815;
length 131;
configuration 825117line_configuration98301;
};

object underground_line {
phases C;
from node824816824815;
name 824816;
to node1808-29-034824816;
length 403;
configuration 825117line_configuration98301;
};

object transformer {
phases CS;
from node1808-29-034824816;
name 1808-29-034;
to nodeS1808-29-0081808-29-034;
configuration 1808-33-003transformer_configuration32701;
};

object triplex_node {
phases CS;
power_12 538.18;
name S1808-29-008;
parent nodeS1808-29-0081808-29-034;
nominal_voltage 120;
};

object underground_line {
phases C;
from node824816824815;
name 824818;
to node824820824818;
length 198;
configuration 825117line_configuration98301;
};

object underground_line {
phases CN;
from node824820824818;
name 824820;
to node1808-0150824820;
length 534;
configuration 825117line_configuration98301;
};

object transformer {
phases CS;
from node1808-0150824820;
name 1808-0150;
to nodeS1808-29-0921808-0150;
configuration 1808-33-003transformer_configuration32701;
};

object triplex_node {
phases CS;
power_12 122.465;
name S1808-29-092;
parent nodeS1808-29-0921808-0150;
nominal_voltage 120;
};

object transformer {
phases CS;
from node824726906386;
to nodeS1808-20-0061808-20-007;
configuration 1808-33-003transformer_configuration32701;
name 1808-20-007;
};

object triplex_node {
phases CS;
power_12 774.779;
name S1808-20-006;
parent nodeS1808-20-0061808-20-007;
nominal_voltage 120;
};

object underground_line {
phases CN;
from node906386824723;
name 911237;
to node911238911237;
length 45;
configuration 825117line_configuration98301;
};

object underground_line {
phases CN;
from node911238911237;
name 911238;
to nodeT4114911238;
length 280;
configuration 825117line_configuration98301;
};

object transformer {
phases CS;
from nodeT4114911238;
name T4114;
to nodeS1808-20-009T4114;
configuration 1808-33-003transformer_configuration32701;
};

object triplex_node {
phases CS;
power_12 1445.42;
name S1808-20-009;
parent nodeS1808-20-009T4114;
nominal_voltage 120;
};

object transformer {
phases CS;
from node911238911237;
name T4113;
to nodeS1808-20-008T4113;
configuration 1808-33-003transformer_configuration32701;
};

object triplex_node {
phases CS;
power_12 105.803;
name S1808-20-008;
parent nodeS1808-20-008T4113;
nominal_voltage 120;
};

object underground_line {
phases CN;
from node824722824721;
name 824822;
to nodeF18632x1824822;
length 70;
configuration 825117line_configuration98301;
};

object fuse {
phases C;
from nodeF18632x1824822;
name F18632x1;
current_limit 9999.0 A;
to node824823F18632x1;
};

object underground_line {
phases C;
from node824823F18632x1;
name 824823;
to node900921824823;
length 17;
configuration 825117line_configuration98301;
};

object underground_line {
phases CN;
from node900921824823;
name 900921;
to nodeT18630900921;
length 2486;
configuration 825117line_configuration98301;
};

object transformer {
phases CS;
from nodeT18630900921;
name T18630;
to nodeS1808-20-004T18630;
configuration 1808-33-003transformer_configuration32701;
};

object triplex_node {
phases CS;
power_12 100;
name S1808-20-004;
parent nodeS1808-20-004T18630;
nominal_voltage 120;
};

object overhead_line {
phases CN;
from node824722824721;
name 910307;
to node910308910307;
length 250;
configuration 825694line_configuration32601;
};

object overhead_line {
phases CN;
from node910308910307;
name 910308;
to node1808-20-011910308;
length 250;
configuration 825694line_configuration32601;
};

object transformer {
phases CS;
from node1808-20-011910308;
name 1808-20-011;
to nodeS1808-20-0071808-20-011;
configuration 1808-33-003transformer_configuration32701;
};

object triplex_node {
phases CS;
power_12 2319.34;
name S1808-20-007;
parent nodeS1808-20-0071808-20-011;
nominal_voltage 120;
};

object transformer {
phases CS;
from node824720824718;
name 1808-20-002;
to nodeS1808-20-0021808-20-002;
configuration 1808-33-003transformer_configuration32701;
};

object triplex_node {
phases CS;
power_12 1016.38;
name S1808-20-002;
parent nodeS1808-20-0021808-20-002;
nominal_voltage 120;
};

object overhead_line {
phases CN;
from node824717920601;
name 824825;
to node1808-20-008824825;
length 338;
configuration 824825line_configuration15001;
};

object line_configuration {
name 824825line_configuration15001;
conductor_A 825694line_configuration32601overhead_line_conductor32604;
spacing 825693line_configuration32501line_spacing32502;
conductor_N 913826line_configuration64901overhead_line_conductor64906;
conductor_C 913826line_configuration64901overhead_line_conductor64906;
conductor_B 825694line_configuration32601overhead_line_conductor32604;
};

object transformer {
phases CS;
from node1808-20-008824825;
name 1808-20-008;
to nodeS1808-20-0011808-20-008;
configuration 1808-33-003transformer_configuration32701;
};

object triplex_node {
phases CS;
power_12 749.786;
name S1808-20-001;
parent nodeS1808-20-0011808-20-008;
nominal_voltage 120;
};

object underground_line {
phases ACB;
from node824713824712;
name 824827;
to node974368824827;
length 1032;
configuration 825117line_configuration98301;
};

object underground_line {
phases ACB;
from node974368824827;
name 974368;
to nodeT29595974368;
length 678;
configuration 825117line_configuration98301;
};

object transformer {
phases AS;
from nodeT29595974368;
name T29595;
to nodeS1808-19-004T29595;
configuration T12395transformer_configuration65401;
};

object triplex_node {
phases AS;
power_12 3395.72;
name S1808-19-004;
parent nodeS1808-19-004T29595;
nominal_voltage 120;
};

object underground_line {
phases ACB;
from node974368824827;
name 974371;
to nodeT29596974371;
length 668;
configuration 825117line_configuration98301;
};

object transformer {
phases AS;
from nodeT29596974371;
name T29596;
to nodeS1808-19-012T29596;
configuration T12395transformer_configuration65401;
};

object triplex_node {
phases AS;
power_12 6829.86;
name S1808-19-012;
parent nodeS1808-19-012T29596;
nominal_voltage 120;
};

object transformer {
phases AS;
from node824704824702;
name 1808-19-002;
to nodeS1808-19-0101808-19-002;
configuration T12395transformer_configuration65401;
};

object triplex_node {
phases AS;
power_12 100;
name S1808-19-010;
parent nodeS1808-19-0101808-19-002;
nominal_voltage 120;
};

object overhead_line {
phases ACBN;
from node824701824700;
name 824830;
to node1808-19-009824830;
length 204;
configuration 824830line_configuration16201;
};

object line_configuration {
name 824830line_configuration16201;
spacing 825693line_configuration32501line_spacing32502;
conductor_N 825694line_configuration32601overhead_line_conductor32606;
conductor_A 825694line_configuration32601overhead_line_conductor32606;
conductor_C 825694line_configuration32601overhead_line_conductor32606;
conductor_B 825694line_configuration32601overhead_line_conductor32606;
};

object transformer {
phases AS;
from node1808-19-009824830;
name 1808-19-009;
to nodeS1808-19-0031808-19-009;
configuration 1808-33-003transformer_configuration32701;
};

object triplex_node {
phases AS;
power_12 976.289;
name S1808-19-003;
parent nodeS1808-19-0031808-19-009;
nominal_voltage 120;
};

object triplex_node {
phases CS;
power_12 100;
name S1808-19-006;
parent nodeS1808-19-0031808-19-009;
nominal_voltage 120;
};

object underground_line {
phases ACB;
from node824697984639;
name 824833;
to node824834824833;
length 281;
configuration 825117line_configuration98301;
};

object underground_line {
phases ACB;
from node824834824833;
name 824834;
to node533x1-Bx1824834;
length 10;
configuration 825117line_configuration98301;
};

object switch {
status CLOSED;
phases ACBN;
from node533x1-Bx1824834;
name 533x1-Bx1;
to node533x1-Ax1533x1-Bx1;
};

object switch {
status CLOSED;
phases ACBN;
from node533x1-Ax1533x1-Bx1;
name 533x1-Ax1;
to node824835533x1-Ax1;
};

object overhead_line {
phases ACBN;
from node824835533x1-Ax1;
name 824835;
to node824836824835;
length 75;
configuration 824894line_configuration55501;
};

object overhead_line {
phases ACBN;
from node824836824835;
name 824836;
to node824837824836;
length 254;
configuration 824894line_configuration55501;
};

object overhead_line {
phases ACBN;
from node824837824836;
name 824837;
to node824838824837;
length 3360;
configuration 824894line_configuration55501;
};

object underground_line {
phases ACBN;
from node824838824837;
name 824838;
to nodeFCMA4-F016x1824838;
length 117;
configuration 825117line_configuration98301;
};

object fuse {
phases ACB;
from nodeFCMA4-F016x1824838;
name FCMA4-F016x1;
current_limit 9999.0 A;
to node824839FCMA4-F016x1;
};

object underground_line {
phases ACB;
from node824839FCMA4-F016x1;
name 824839;
to node1808-19-010824839;
length 2136;
configuration 825117line_configuration98301;
};

object transformer {
phases AS;
from node1808-19-010824839;
name 1808-19-010;
to nodeS1808-30-0041808-19-010;
configuration T12395transformer_configuration65401;
};

object triplex_node {
phases AS;
power_12 7846.4;
name S1808-30-004;
parent nodeS1808-30-0041808-19-010;
nominal_voltage 120;
};

object triplex_node {
phases AS;
power_12 6177.02;
name S1808-30-006;
parent nodeS1808-30-0041808-19-010;
nominal_voltage 120;
};

object overhead_line {
phases ACBN;
from node824838824837;
name 824842;
to node824843824842;
length 380;
configuration 824894line_configuration55501;
};

object overhead_line {
phases ACBN;
from node824843824842;
name 824843;
to node824844824843;
length 689;
configuration 824894line_configuration55501;
};

object overhead_line {
phases ACBN;
from node824844824843;
name 824844;
to node824847824844;
length 3236;
configuration 824894line_configuration55501;
};

object overhead_line {
phases ACBN;
from node824847824844;
name 824847;
to node824848824847;
length 1014;
configuration 824894line_configuration55501;
};

object underground_line {
phases CN;
from node824848824847;
name 824848;
to nodeR7231x1824848;
length 118;
configuration 825117line_configuration98301;
};

object fuse {
phases C;
from nodeR7231x1824848;
name R7231x1;
current_limit 9999.0 A;
to node824849R7231x1;
};

object underground_line {
phases C;
from node824849R7231x1;
name 824849;
to node824850824849;
length 2623;
configuration 825117line_configuration98301;
};

object underground_line {
phases CN;
from node824850824849;
name 824850;
to node1807-0244824850;
length 1877;
configuration 825117line_configuration98301;
};

object transformer {
phases CS;
from node1807-0244824850;
name 1807-0244;
to nodeS1807-36-0051807-0244;
configuration 1808-33-003transformer_configuration32701;
};

object triplex_node {
phases CS;
power_12 1771.99;
name S1807-36-005;
parent nodeS1807-36-0051807-0244;
nominal_voltage 120;
};

object overhead_line {
phases CN;
from node824850824849;
name 824852;
to node824853824852;
length 301;
configuration 825694line_configuration32601;
};

object overhead_line {
phases CN;
from node824853824852;
name 824853;
to node824855824853;
length 1294;
configuration 825694line_configuration32601;
};

object overhead_line {
phases CN;
from node824855824853;
name 824855;
to node824857824855;
length 339;
configuration 825694line_configuration32601;
};

object overhead_line {
phases CN;
from node824857824855;
name 824857;
to node824858824857;
length 317;
configuration 825694line_configuration32601;
};

object overhead_line {
phases CN;
from node824858824857;
name 824858;
to node824859824858;
length 303;
configuration 825694line_configuration32601;
};

object overhead_line {
phases CN;
from node824859824858;
name 824859;
to node980396824859;
length 930;
configuration 825694line_configuration32601;
};

object overhead_line {
phases CN;
from node980396824859;
name 980396;
to node980393980396;
length 300;
configuration 825694line_configuration32601;
};

object overhead_line {
phases CN;
from node980393980396;
name 980393;
to node824860980393;
length 143;
configuration 825694line_configuration32601;
};

object overhead_line {
phases CN;
from node824860980393;
name 824860;
to node923236824860;
length 143;
configuration 825694line_configuration32601;
};

object overhead_line {
phases CN;
from node923236824860;
name 923236;
to node923237923236;
length 264;
configuration 825694line_configuration32601;
};

object overhead_line {
phases CN;
from node923237923236;
name 923237;
to node923238923237;
length 257;
configuration 825694line_configuration32601;
};

object overhead_line {
phases CN;
from node923238923237;
name 923238;
to node824862923238;
length 293;
configuration 825694line_configuration32601;
};

object overhead_line {
phases CN;
from node824862923238;
name 824862;
to node923239824862;
length 321;
configuration 825694line_configuration32601;
};

object overhead_line {
phases CN;
from node923239824862;
name 923239;
to node923240923239;
length 252;
configuration 825694line_configuration32601;
};

object overhead_line {
phases CN;
from node923240923239;
name 923240;
to node923241923240;
length 249;
configuration 825694line_configuration32601;
};

object overhead_line {
phases CN;
from node923241923240;
name 923241;
to node923242923241;
length 258;
configuration 825694line_configuration32601;
};

object overhead_line {
phases CN;
from node923242923241;
name 923242;
to nodeF7815x1923242;
length 270;
configuration 825694line_configuration32601;
};

object fuse {
phases C;
from nodeF7815x1923242;
name F7815x1;
current_limit 9999.0 A;
to node922977F7815x1;
};

object underground_line {
phases C;
from node922977F7815x1;
name 922977;
to node922975922977;
length 56;
configuration 825117line_configuration98301;
};

object underground_line {
phases C;
from node922975922977;
name 922975;
to node922976922975;
length 150;
configuration 825117line_configuration98301;
};

object underground_line {
phases C;
from node922976922975;
name 922976;
to nodeT12925922976;
length 1320;
configuration 825117line_configuration98301;
};

object transformer {
phases CS;
from nodeT12925922976;
name T12925;
to nodeS1807-35-005T12925;
configuration 1808-33-003transformer_configuration32701;
};

object triplex_node {
phases CS;
power_12 1529.56;
name S1807-35-005;
parent nodeS1807-35-005T12925;
nominal_voltage 120;
};

object underground_line {
phases C;
from node922976922975;
name 922978;
to node922979922978;
length 1300;
configuration 825117line_configuration98301;
};

object underground_line {
phases C;
from node922979922978;
name 922979;
to node922980922979;
length 30;
configuration 825117line_configuration98301;
};

object underground_line {
phases C;
from node922980922979;
name 922980;
to node1807-0304922980;
length 597;
configuration 825117line_configuration98301;
};

object underground_line {
phases C;
from node922979922978;
name 922981;
to node824871922981;
length 25;
configuration 825117line_configuration98301;
};

object underground_line {
phases CN;
from node824871922981;
name 824871;
to node922983824871;
length 372;
configuration 825117line_configuration98301;
};

object underground_line {
phases CN;
from node922983824871;
name 922983;
to node1807-0292922983;
length 1250;
configuration 825117line_configuration98301;
};

object transformer {
phases CS;
from node1807-0292922983;
name 1807-0292;
to nodeS1807-34-0111807-0292;
configuration 1808-33-003transformer_configuration32701;
};

object triplex_node {
phases CS;
power_12 924.736;
name S1807-34-011;
parent nodeS1807-34-0111807-0292;
nominal_voltage 120;
};

object transformer {
phases CS;
from node922983824871;
name T12926;
to nodeS1807-35-004T12926;
configuration 1808-33-003transformer_configuration32701;
};

object triplex_node {
phases CS;
power_12 867.253;
name S1807-35-004;
parent nodeS1807-35-004T12926;
nominal_voltage 120;
};

object underground_line {
phases CN;
from node980393980396;
name 980395;
to node980394980395;
length 1162;
configuration 825117line_configuration98301;
};

object overhead_line {
phases CN;
from node980394980395;
name 980394;
to node824878980394;
length 246;
configuration 825694line_configuration32601;
};

object overhead_line {
phases CN;
from node824878980394;
name 824878;
to node1807-36-005824878;
length 101;
configuration 825694line_configuration32601;
};

object transformer {
phases CS;
from node1807-36-005824878;
name 1807-36-005;
to nodeS1807-36-0011807-36-005;
configuration 1808-33-003transformer_configuration32701;
};

object triplex_node {
phases CS;
power_12 249.929;
name S1807-36-001;
parent nodeS1807-36-0011807-36-005;
nominal_voltage 120;
};

object underground_line {
phases CN;
from node824878980394;
name 824880;
to nodeF5402x1824880;
length 15;
configuration 825117line_configuration98301;
};

object fuse {
phases C;
from nodeF5402x1824880;
name F5402x1;
current_limit 9999.0 A;
to node824881F5402x1;
};

object underground_line {
phases C;
from node824881F5402x1;
name 824881;
to node1807-0299824881;
length 553;
configuration 825117line_configuration98301;
};

object transformer {
phases CS;
from node1807-0299824881;
to nodeS1807-36-0101807-0299;
configuration 1808-33-003transformer_configuration32701;
name 1807-0299;
};

object triplex_node {
phases CS;
power_12 206.608;
name S1807-36-010;
parent nodeS1807-36-0101807-0299;
nominal_voltage 120;
};

object transformer {
phases CS;
from node824857824855;
name 1807-36-002;
to nodeS1807-36-0081807-36-002;
configuration 1808-33-003transformer_configuration32701;
};

object triplex_node {
phases CS;
power_12 100;
name S1807-36-008;
parent nodeS1807-36-0081807-36-002;
nominal_voltage 120;
};

object overhead_line {
phases CN;
from node824850824849;
name 824883;
to node824884824883;
length 198;
configuration 825694line_configuration32601;
};

object overhead_line {
phases CN;
from node824884824883;
name 824884;
to node824885824884;
length 1300;
configuration 825694line_configuration32601;
};

object overhead_line {
phases CN;
from node824885824884;
name 824885;
to node1807-25-007824885;
length 176;
configuration 825694line_configuration32601;
};

object transformer {
phases CS;
from node1807-25-007824885;
to nodeS1807-25-0031807-25-007;
configuration 1808-33-003transformer_configuration32701;
name 1807-25-007;
};

object triplex_node {
phases CS;
power_12 1382.94;
name S1807-25-003;
parent nodeS1807-25-0031807-25-007;
nominal_voltage 120;
};

object underground_line {
phases CN;
from node824885824884;
name 824887;
to nodeF18666x1824887;
length 38;
configuration 825117line_configuration98301;
};

object fuse {
phases C;
from nodeF18666x1824887;
name F18666x1;
current_limit 9999.0 A;
to node824888F18666x1;
};

object underground_line {
phases C;
from node824888F18666x1;
name 824888;
to node824889824888;
length 1084;
configuration 825117line_configuration98301;
};

object underground_line {
phases C;
from node824889824888;
name 824889;
to node824890824889;
length 1165;
configuration 825117line_configuration98301;
};

object underground_line {
phases C;
from node824890824889;
name 824890;
to node950220824890;
length 384;
configuration 825117line_configuration98301;
};

object underground_line {
phases CN;
from node950220824890;
name 950220;
to nodeT11989950220;
length 770;
configuration 825117line_configuration98301;
};

object transformer {
phases CS;
from nodeT11989950220;
name T11989;
to nodeS1807-25-015T11989;
configuration 1808-33-003transformer_configuration32701;
};

object triplex_node {
phases CS;
power_12 107.469;
name S1807-25-015;
parent nodeS1807-25-015T11989;
nominal_voltage 120;
};

object transformer {
phases CS;
from node950220824890;
name T11988;
to nodeS1807-25-002T11988;
configuration 1808-33-003transformer_configuration32701;
};

object triplex_node {
phases CS;
power_12 609.826;
name S1807-25-002;
parent nodeS1807-25-002T11988;
nominal_voltage 120;
};

object underground_line {
phases CN;
from node824848824847;
name 825629;
to nodeR7230x1825629;
length 47;
configuration 825117line_configuration98301;
};

object fuse {
phases C;
from nodeR7230x1825629;
name R7230x1;
current_limit 9999.0 A;
to node972841R7230x1;
};

object underground_line {
phases C;
from node972841R7230x1;
name 972841;
to node825630972841;
length 1131;
configuration 825117line_configuration98301;
};

object underground_line {
phases C;
from node825630972841;
name 825630;
to node825631825630;
length 1977;
configuration 825117line_configuration98301;
};

object underground_line {
phases C;
from node825631825630;
name 825631;
to node825632825631;
length 384;
configuration 825117line_configuration98301;
};

object underground_line {
phases C;
from node825632825631;
name 825632;
to node825633825632;
length 365;
configuration 825117line_configuration98301;
};

object underground_line {
phases C;
from node825633825632;
name 825633;
to node825634825633;
length 336;
configuration 825117line_configuration98301;
};

object underground_line {
phases C;
from node825634825633;
name 825634;
to node825635825634;
length 336;
configuration 825117line_configuration98301;
};

object underground_line {
phases C;
from node825635825634;
name 825635;
to node825636825635;
length 366;
configuration 825117line_configuration98301;
};

object underground_line {
phases C;
from node825636825635;
name 825636;
to node825637825636;
length 695;
configuration 825117line_configuration98301;
};

object underground_line {
phases C;
from node825637825636;
name 825637;
to node902721825637;
length 39;
configuration 825117line_configuration98301;
};

object underground_line {
phases C;
from node902721825637;
name 902721;
to node825638902721;
length 20;
configuration 825117line_configuration98301;
};

object underground_line {
phases C;
from node825638902721;
name 825638;
to node825639825638;
length 336;
configuration 825117line_configuration98301;
};

object underground_line {
phases C;
from node825639825638;
name 825639;
to nodeT3285825639;
length 160;
configuration 825117line_configuration98301;
};

object transformer {
phases CS;
from nodeT3285825639;
name T3285;
to nodeS1808-32-005T3285;
configuration 1808-33-003transformer_configuration32701;
};

object triplex_node {
phases CS;
power_12 324.907;
name S1808-32-005;
parent nodeS1808-32-005T3285;
nominal_voltage 120;
};

object underground_line {
phases C;
from node825639825638;
name 902741;
to node825641902741;
length 1299;
configuration 825117line_configuration98301;
};

object underground_line {
phases C;
from node825641902741;
name 825641;
to nodeT3286825641;
length 101;
configuration 825117line_configuration98301;
};

object transformer {
phases CS;
from nodeT3286825641;
name T3286;
to nodeS1808-32-006T3286;
configuration 1808-33-003transformer_configuration32701;
};

object triplex_node {
phases CS;
power_12 120.799;
name S1808-32-006;
parent nodeS1808-32-006T3286;
nominal_voltage 120;
};

object underground_line {
phases C;
from node825641902741;
name 825644;
to nodeT3287825644;
length 542;
configuration 825117line_configuration98301;
};

object transformer {
phases CS;
from nodeT3287825644;
name T3287;
to nodeS1808-32-074T3287;
configuration 1808-33-003transformer_configuration32701;
};

object triplex_node {
phases CS;
power_12 708.131;
name S1808-32-074;
parent nodeS1808-32-074T3287;
nominal_voltage 120;
};

object underground_line {
phases C;
from node825641902741;
name 902742;
to nodeT3288902742;
length 566;
configuration 825117line_configuration98301;
};

object transformer {
phases CS;
from nodeT3288902742;
name T3288;
to nodeS1808-32-076T3288;
configuration 1808-33-003transformer_configuration32701;
};

object triplex_node {
phases CS;
power_12 232.434;
name S1808-32-076;
parent nodeS1808-32-076T3288;
nominal_voltage 120;
};

object underground_line {
phases C;
from node825637825636;
name 825646;
to node825647825646;
length 119;
configuration 825117line_configuration98301;
};

object underground_line {
phases C;
from node825647825646;
name 825647;
to node825648825647;
length 607;
configuration 825117line_configuration98301;
};

object underground_line {
phases C;
from node825648825647;
name 825648;
to node914744825648;
length 339;
configuration 825117line_configuration98301;
};

object underground_line {
phases C;
from node914744825648;
name 914744;
to node825649914744;
length 293;
configuration 825117line_configuration98301;
};

object underground_line {
phases C;
from node825649914744;
name 825649;
to node825652825649;
length 466;
configuration 825117line_configuration98301;
};

object overhead_line {
phases CN;
from node825652825649;
name 825652;
to node825654825652;
length 398;
configuration 825694line_configuration32601;
};

object overhead_line {
phases CN;
from node825654825652;
name 825654;
to node825656825654;
length 362;
configuration 825694line_configuration32601;
};

object overhead_line {
phases CN;
from node825656825654;
name 825656;
to node825657825656;
length 213;
configuration 825694line_configuration32601;
};

object overhead_line {
phases CN;
from node825657825656;
name 825657;
to node825658825657;
length 295;
configuration 825694line_configuration32601;
};

object overhead_line {
phases CN;
from node825658825657;
name 825658;
to node825659825658;
length 435;
configuration 825694line_configuration32601;
};

object overhead_line {
phases CN;
from node825659825658;
name 825659;
to node1808-32-008825659;
length 401;
configuration 825694line_configuration32601;
};

object transformer {
phases CS;
from node1808-32-008825659;
name 1808-32-008;
to nodeS1808-32-0031808-32-008;
configuration 1808-33-003transformer_configuration32701;
};

object triplex_node {
phases CS;
power_12 100;
name S1808-32-003;
parent nodeS1808-32-0031808-32-008;
nominal_voltage 120;
};

object transformer {
phases CS;
from node825656825654;
name 1808-32-005;
to nodeS1808-32-0081808-32-005;
configuration 1808-33-003transformer_configuration32701;
};

object triplex_node {
phases CS;
power_12 100;
name S1808-32-008;
parent nodeS1808-32-0081808-32-005;
nominal_voltage 120;
};

object transformer {
phases CS;
from node825654825652;
name 1808-32-004;
to nodeS1808-32-0171808-32-004;
configuration 1808-33-003transformer_configuration32701;
};

object triplex_node {
phases CS;
power_12 100;
name S1808-32-017;
parent nodeS1808-32-0171808-32-004;
nominal_voltage 120;
};

object overhead_line {
phases CN;
from node825652825649;
name 825662;
to node825663825662;
length 207;
configuration 825692line_configuration32401;
};

object overhead_line {
phases CN;
from node825663825662;
name 825663;
to node825664825663;
length 52;
configuration 825692line_configuration32401;
};

object overhead_line {
phases CN;
from node825664825663;
name 825664;
to node825666825664;
length 273;
configuration 825692line_configuration32401;
};

object overhead_line {
phases CN;
from node825666825664;
name 825666;
to node825667825666;
length 310;
configuration 825692line_configuration32401;
};

object overhead_line {
phases CN;
from node825667825666;
name 825667;
to node1808-32-014825667;
length 215;
configuration 825694line_configuration32601;
};

object transformer {
phases CS;
from node1808-32-014825667;
name 1808-32-014;
to nodeS1808-32-0041808-32-014;
configuration 1808-33-003transformer_configuration32701;
};

object triplex_node {
phases CS;
power_12 354.899;
name S1808-32-004;
parent nodeS1808-32-0041808-32-014;
nominal_voltage 120;
};

object overhead_line {
phases CN;
from node825667825666;
name 825675;
to node825676825675;
length 435;
configuration 825692line_configuration32401;
};

object overhead_line {
phases CN;
from node825676825675;
name 825676;
to node825678825676;
length 409;
configuration 825692line_configuration32401;
};

object overhead_line {
phases CN;
from node825678825676;
name 825678;
to node910316825678;
length 227;
configuration 825692line_configuration32401;
};

object overhead_line {
phases CN;
from node910316825678;
name 910316;
to node825679910316;
length 94;
configuration 825692line_configuration32401;
};

object overhead_line {
phases CN;
from node825679910316;
name 825679;
to node914175825679;
length 183;
configuration 825692line_configuration32401;
};

object overhead_line {
phases CN;
from node914175825679;
name 914175;
to node825681914175;
length 243;
configuration 825692line_configuration32401;
};

object overhead_line {
phases CN;
from node825681914175;
name 825681;
to node825682825681;
length 144;
configuration 825692line_configuration32401;
};

object overhead_line {
phases CN;
from node825682825681;
name 825682;
to node825684825682;
length 1855;
configuration 825692line_configuration32401;
};

object overhead_line {
phases CN;
from node825684825682;
name 825684;
to node957975825684;
length 577;
configuration 825692line_configuration32401;
};

object overhead_line {
phases CN;
from node957975825684;
name 957975;
to node825685957975;
length 308;
configuration 825692line_configuration32401;
};

object overhead_line {
phases CN;
from node825685957975;
name 825685;
to node825686825685;
length 164;
configuration 825692line_configuration32401;
};

object overhead_line {
phases CN;
from node825686825685;
name 825686;
to node914182825686;
length 488;
configuration 825692line_configuration32401;
};

object overhead_line {
phases CN;
from node914182825686;
name 914182;
to node825687914182;
length 189;
configuration 825692line_configuration32401;
};

object underground_line {
phases CN;
from node825687914182;
name 825687;
to nodeFCMA4-F011x1825687;
length 62;
configuration 825117line_configuration98301;
};

object fuse {
phases C;
from nodeFCMA4-F011x1825687;
name FCMA4-F011x1;
current_limit 9999.0 A;
to node825688FCMA4-F011x1;
};

object underground_line {
phases C;
from node825688FCMA4-F011x1;
name 825688;
to node1808-33-002825688;
length 354;
configuration 825117line_configuration98301;
};

object transformer {
phases CS;
from node1808-33-002825688;
to nodeS1808-33-0051808-33-002;
configuration 1808-33-003transformer_configuration32701;
name 1808-33-002;
};

object triplex_node {
phases CS;
power_12 100;
name S1808-33-005;
parent nodeS1808-33-0051808-33-002;
nominal_voltage 120;
};

object overhead_line {
phases CN;
from node825687914182;
name 825690;
to node825692825690;
length 312;
configuration 825692line_configuration32401;
};

object overhead_line {
phases CN;
from node825692825690;
name 825692;
to node825693825692;
length 345;
configuration 825692line_configuration32401;
};

object line_configuration {
name 825692line_configuration32401;
spacing 825693line_configuration32501line_spacing32502;
conductor_N 825692line_configuration32401overhead_line_conductor32406;
conductor_A 825694line_configuration32601overhead_line_conductor32604;
conductor_C 825692line_configuration32401overhead_line_conductor32406;
conductor_B 825694line_configuration32601overhead_line_conductor32604;
};

object overhead_line_conductor {
resistance 2.44;
name 825692line_configuration32401overhead_line_conductor32406;
geometric_mean_radius 0.00479;
};

object overhead_line {
phases CN;
from node825693825692;
name 825693;
to node825694825693;
length 469;
configuration 825694line_configuration32601;
};

object line_spacing {
distance_BC 7.0;
name 825693line_configuration32501line_spacing32502;
distance_CN 5.0;
distance_AC 4.5;
distance_AN 4.272002;
distance_AB 2.5;
distance_BN 5.656854;
};

object overhead_line {
phases CN;
from node825694825693;
name 825694;
to node1808-33-003825694;
length 140;
configuration 825694line_configuration32601;
};

object line_configuration {
name 825694line_configuration32601;
conductor_A 825694line_configuration32601overhead_line_conductor32604;
spacing 825693line_configuration32501line_spacing32502;
conductor_N 825694line_configuration32601overhead_line_conductor32606;
conductor_C 825694line_configuration32601overhead_line_conductor32606;
conductor_B 825694line_configuration32601overhead_line_conductor32604;
};

object overhead_line_conductor {
resistance 0.185900;
name 825694line_configuration32601overhead_line_conductor32604;
geometric_mean_radius 0.031300;
};

object overhead_line_conductor {
resistance 2.57;
name 825694line_configuration32601overhead_line_conductor32606;
geometric_mean_radius 0.00437;
};

object transformer {
phases CS;
from node1808-33-003825694;
name 1808-33-003;
to nodeS1808-33-0041808-33-003;
configuration 1808-33-003transformer_configuration32701;
};

object transformer_configuration {
powerC_rating 50 kVA;
name 1808-33-003transformer_configuration32701;
shunt_impedance 10000+10000j;
secondary_voltage 240.0;
connect_type SINGLE_PHASE_CENTER_TAPPED;
impedance 0.00033+0.0022j;
primary_voltage 7200.0;
powerB_rating 50 kVA;
powerA_rating 50 kVA;
};

object triplex_node {
phases CS;
power_12 900.576;
name S1808-33-004;
parent nodeS1808-33-0041808-33-003;
nominal_voltage 120;
};

object overhead_line {
phases CN;
from node825693825692;
name 825696;
to node825698825696;
length 936;
configuration 825692line_configuration32401;
};

object overhead_line {
phases CN;
from node825698825696;
name 825698;
to node825701825698;
length 323;
configuration 825692line_configuration32401;
};

object overhead_line {
phases CN;
from node825701825698;
name 825701;
to node825702825701;
length 961;
configuration 825692line_configuration32401;
};

object underground_line {
phases CN;
from node825702825701;
name 825702;
to nodeFCMA4-F047x1825702;
length 77;
configuration 825117line_configuration98301;
};

object fuse {
phases C;
from nodeFCMA4-F047x1825702;
name FCMA4-F047x1;
current_limit 9999.0 A;
to node825703FCMA4-F047x1;
};

object underground_line {
phases C;
from node825703FCMA4-F047x1;
name 825703;
to node825704825703;
length 176;
configuration 825117line_configuration98301;
};

object underground_line {
phases CN;
from node825704825703;
name 825704;
to node1808-27-003825704;
length 294;
configuration 825117line_configuration98301;
};

object transformer {
phases CS;
from node825704825703;
to nodeS1808-27-0111808-0166;
configuration 1808-33-003transformer_configuration32701;
name 1808-0166;
};

object triplex_node {
phases CS;
power_12 364.896;
name S1808-27-011;
parent nodeS1808-27-0111808-0166;
nominal_voltage 120;
};

object overhead_line {
phases CN;
from node825702825701;
name 954735;
to node912858954735;
length 248;
configuration 825692line_configuration32401;
};

object underground_line {
phases CN;
from node912858954735;
name 912858;
to nodeF7633x1912858;
length 59;
configuration 825117line_configuration98301;
};

object fuse {
phases C;
from nodeF7633x1912858;
name F7633x1;
current_limit 9999.0 A;
to node912863F7633x1;
};

object underground_line {
phases C;
from node912863F7633x1;
name 912863;
to nodeT4107912863;
length 556;
configuration 825117line_configuration98301;
};

object transformer {
phases CS;
from nodeT4107912863;
name T4107;
to nodeS1808-34-004T4107;
configuration 1808-33-003transformer_configuration32701;
};

object triplex_node {
phases CS;
power_12 832.263;
name S1808-34-004;
parent nodeS1808-34-004T4107;
nominal_voltage 120;
};

object overhead_line {
phases CN;
from node912858954735;
name 954736;
to node825707954736;
length 200;
configuration 825692line_configuration32401;
};

object overhead_line {
phases CN;
from node825707954736;
name 825707;
to node825709825707;
length 363;
configuration 825692line_configuration32401;
};

object overhead_line {
phases CN;
from node825709825707;
name 825709;
to node825710825709;
length 410;
configuration 825692line_configuration32401;
};

object overhead_line {
phases CN;
from node825710825709;
name 825710;
to node825711825710;
length 1505;
configuration 825692line_configuration32401;
};

object overhead_line {
phases CN;
from node825711825710;
name 825711;
to node825713825711;
length 520;
configuration 825692line_configuration32401;
};

object overhead_line {
phases CN;
from node825713825711;
name 825713;
to node825714825713;
length 374;
configuration 825692line_configuration32401;
};

object overhead_line {
phases CN;
from node825714825713;
name 825714;
to nodeNO448x1-A825714;
length 258;
configuration 825692line_configuration32401;
};

object transformer {
phases CS;
from node825713825711;
to nodeS1808-27-0061808-27-007;
configuration 1808-33-003transformer_configuration32701;
name 1808-27-007;
};

object triplex_node {
phases CS;
power_12 933.067;
name S1808-27-006;
parent nodeS1808-27-0061808-27-007;
nominal_voltage 120;
};

object underground_line {
phases CN;
from node825711825710;
name 825715;
to nodeFCMA4-F099x1825715;
length 73;
configuration 825117line_configuration98301;
};

object fuse {
phases C;
from nodeFCMA4-F099x1825715;
name FCMA4-F099x1;
current_limit 9999.0 A;
to node825716FCMA4-F099x1;
};

object underground_line {
phases C;
from node825716FCMA4-F099x1;
name 825716;
to node1808-0124825716;
length 473;
configuration 825117line_configuration98301;
};

object transformer {
phases CS;
from node1808-0124825716;
name 1808-0124;
to nodeS1808-27-0091808-0124;
configuration 1808-33-003transformer_configuration32701;
};

object triplex_node {
phases CS;
power_12 650.648;
name S1808-27-009;
parent nodeS1808-27-0091808-0124;
nominal_voltage 120;
};

object transformer {
phases CS;
from node825710825709;
name 1808-27-005;
to nodeS1808-34-0031808-27-005;
configuration 1808-33-003transformer_configuration32701;
};

object triplex_node {
phases CS;
power_12 194.111;
name S1808-34-003;
parent nodeS1808-34-0031808-27-005;
nominal_voltage 120;
};

object transformer {
phases CS;
from node825709825707;
name 1808-27-004;
to nodeS1808-27-0101808-27-004;
configuration 1808-33-003transformer_configuration32701;
};

object triplex_node {
phases CS;
power_12 134.128;
name S1808-27-010;
parent nodeS1808-27-0101808-27-004;
nominal_voltage 120;
};

object transformer {
phases CS;
from node825701825698;
name 1808-27-001;
to nodeS1808-27-0051808-27-001;
configuration 1808-33-003transformer_configuration32701;
};

object triplex_node {
phases CS;
power_12 768.114;
name S1808-27-005;
parent nodeS1808-27-0051808-27-001;
nominal_voltage 120;
};

object triplex_node {
phases CS;
power_12 295.749;
name S1808-34-001;
parent nodeS1808-27-0051808-27-001;
nominal_voltage 120;
};

object transformer {
phases CS;
from node825698825696;
name 1808-28-007;
to nodeS1808-33-0081808-28-007;
configuration 1808-33-003transformer_configuration32701;
};

object triplex_node {
phases CS;
power_12 249.096;
name S1808-33-008;
parent nodeS1808-33-0081808-28-007;
nominal_voltage 120;
};

object transformer {
phases CS;
from node825693825692;
name 1808-28-006;
to nodeS1808-28-0031808-28-006;
configuration 1808-33-003transformer_configuration32701;
};

object triplex_node {
phases CS;
power_12 2881.68;
name S1808-28-003;
parent nodeS1808-28-0031808-28-006;
nominal_voltage 120;
};

object overhead_line {
phases CN;
from node825685957975;
name 825720;
to node825721825720;
length 345;
configuration 825694line_configuration32601;
};

object overhead_line {
phases CN;
from node825721825720;
name 825721;
to node825723825721;
length 398;
configuration 825694line_configuration32601;
};

object overhead_line {
phases CN;
from node825723825721;
name 825723;
to node825724825723;
length 512;
configuration 825694line_configuration32601;
};

object overhead_line {
phases CN;
from node825724825723;
name 825724;
to node825727825724;
length 1135;
configuration 825694line_configuration32601;
};

object overhead_line {
phases CN;
from node825727825724;
name 825727;
to node825728825727;
length 424;
configuration 825694line_configuration32601;
};

object overhead_line {
phases CN;
from node825728825727;
name 825728;
to node1808-33-009825728;
length 252;
configuration 825694line_configuration32601;
};

object transformer {
phases CS;
from node1808-33-009825728;
name 1808-33-009;
to nodeS1808-33-0031808-33-009;
configuration 1808-33-003transformer_configuration32701;
};

object triplex_node {
phases CS;
power_12 172.451;
name S1808-33-003;
parent nodeS1808-33-0031808-33-009;
nominal_voltage 120;
};

object triplex_node {
phases CS;
power_12 528.183;
name S1808-33-012;
parent nodeS1808-33-0031808-33-009;
nominal_voltage 120;
};

object transformer {
phases CS;
from node825728825727;
name 1808-33-010;
to nodeS1808-33-0091808-33-010;
configuration 1808-33-003transformer_configuration32701;
};

object triplex_node {
phases CS;
power_12 185.78;
name S1808-33-009;
parent nodeS1808-33-0091808-33-010;
nominal_voltage 120;
};

object transformer {
phases CS;
from node825727825724;
name 1808-33-008;
to nodeS1808-33-0071808-33-008;
configuration 1808-33-003transformer_configuration32701;
};

object triplex_node {
phases CS;
power_12 100;
name S1808-33-007;
parent nodeS1808-33-0071808-33-008;
nominal_voltage 120;
};

object transformer {
phases CS;
from node825724825723;
name 1808-33-007;
to nodeS1808-33-0101808-33-007;
configuration 1808-33-003transformer_configuration32701;
};

object triplex_node {
phases CS;
power_12 1207.16;
name S1808-33-010;
parent nodeS1808-33-0101808-33-007;
nominal_voltage 120;
};

object underground_line {
phases CN;
from node825721825720;
name 825732;
to nodeF18558x1825732;
length 101;
configuration 825117line_configuration98301;
};

object fuse {
phases C;
from nodeF18558x1825732;
name F18558x1;
current_limit 9999.0 A;
to node825733F18558x1;
};

object underground_line {
phases C;
from node825733F18558x1;
name 825733;
to node1808-0136825733;
length 200;
configuration 825117line_configuration98301;
};

object transformer {
phases CS;
from node1808-0136825733;
name 1808-0136;
to nodeS1808-33-0111808-0136;
configuration 1808-33-003transformer_configuration32701;
};

object triplex_node {
phases CS;
power_12 1082.19;
name S1808-33-011;
...